GW 1 12       0.0000       0.0000       0.0000       0.3000       0.0000       0.0000       0.0100
GW 2 12       0.0000       0.0000       0.0000       0.2121       0.2121       0.0000       0.0100
GW 3 12       0.0000       0.0000       0.0000       0.0000       0.3000       0.0000       0.0100
GW 4 12       0.0000       0.0000       0.0000      -0.2121       0.2121       0.0000       0.0100
GW 5 12       0.0000       0.0000       0.0000      -0.3000       0.0000       0.0000       0.0100
GW 6 12       0.0000       0.0000       0.0000      -0.2121      -0.2121       0.0000       0.0100
GW 7 12       0.0000       0.0000       0.0000       0.0000      -0.3000       0.0000       0.0100
GW 8 12       0.0000       0.0000       0.0000       0.2121      -0.2121       0.0000       0.0100
GW 9 1       0.0000       0.0000       0.0000       0.0000       0.0000      -0.0500       0.0100
GW 10 20       0.0000       0.0000      -0.0500       0.4830       0.0000      -0.1794       0.0100
GW 11 20       0.0000       0.0000      -0.0500       0.3415       0.3415      -0.1794       0.0100
GW 12 20       0.0000       0.0000      -0.0500       0.0000       0.4830      -0.1794       0.0100
GW 13 20       0.0000       0.0000      -0.0500      -0.3415       0.3415      -0.1794       0.0100
GW 14 20       0.0000       0.0000      -0.0500      -0.4830       0.0000      -0.1794       0.0100
GW 15 20       0.0000       0.0000      -0.0500      -0.3415      -0.3415      -0.1794       0.0100
GW 16 20       0.0000       0.0000      -0.0500       0.0000      -0.4830      -0.1794       0.0100
GW 17 20       0.0000       0.0000      -0.0500       0.3415      -0.3415      -0.1794       0.0100
GE 0
EX 0 9 1 0 1 0
