GW 1 1       0.0000      -0.0167       0.0000       0.0000       0.0167       0.0000       0.0100
GW 2 1       0.0000      -0.0167       0.5000       0.0000       0.0167       0.5000       0.0100
GW 3 1       0.0000      -0.0167       1.0000       0.0000       0.0167       1.0000       0.0100
GW 4 1       0.0000      -0.0167      -0.5000       0.0000       0.0167      -0.5000       0.0100
GW 5 1       0.0000      -0.0167      -1.0000       0.0000       0.0167      -1.0000       0.0100
GW 6 8       0.0000       0.0167       0.5000       0.0000       0.2332       0.6250       0.0100
GW 7 8       0.0000       0.0167       0.5000       0.0000       0.2332       0.3750       0.0100
GW 8 8       0.0000      -0.0167       0.5000       0.0000      -0.2332       0.6250       0.0100
GW 9 8       0.0000      -0.0167       0.5000       0.0000      -0.2332       0.3750       0.0100
GW 10 8       0.0000       0.0167       1.0000       0.0000       0.2332       1.1250       0.0100
GW 11 8       0.0000       0.0167       1.0000       0.0000       0.2332       0.8750       0.0100
GW 12 8       0.0000      -0.0167       1.0000       0.0000      -0.2332       1.1250       0.0100
GW 13 8       0.0000      -0.0167       1.0000       0.0000      -0.2332       0.8750       0.0100
GW 14 8       0.0000       0.0167      -0.5000       0.0000       0.2332      -0.3750       0.0100
GW 15 8       0.0000       0.0167      -0.5000       0.0000       0.2332      -0.6250       0.0100
GW 16 8       0.0000      -0.0167      -0.5000       0.0000      -0.2332      -0.3750       0.0100
GW 17 8       0.0000      -0.0167      -0.5000       0.0000      -0.2332      -0.6250       0.0100
GW 18 8       0.0000       0.0167      -1.0000       0.0000       0.2332      -0.8750       0.0100
GW 19 8       0.0000       0.0167      -1.0000       0.0000       0.2332      -1.1250       0.0100
GW 20 8       0.0000      -0.0167      -1.0000       0.0000      -0.2332      -0.8750       0.0100
GW 21 8       0.0000      -0.0167      -1.0000       0.0000      -0.2332      -1.1250       0.0100
GW 22 30      -0.2500      -0.5000      -1.5000      -0.2500       0.5000      -1.5000       0.0100
GW 23 30      -0.2500      -0.5000      -1.3966      -0.2500       0.5000      -1.3966       0.0100
GW 24 30      -0.2500      -0.5000      -1.2931      -0.2500       0.5000      -1.2931       0.0100
GW 25 30      -0.2500      -0.5000      -1.1897      -0.2500       0.5000      -1.1897       0.0100
GW 26 30      -0.2500      -0.5000      -1.0862      -0.2500       0.5000      -1.0862       0.0100
GW 27 30      -0.2500      -0.5000      -0.9828      -0.2500       0.5000      -0.9828       0.0100
GW 28 30      -0.2500      -0.5000      -0.8793      -0.2500       0.5000      -0.8793       0.0100
GW 29 30      -0.2500      -0.5000      -0.7759      -0.2500       0.5000      -0.7759       0.0100
GW 30 30      -0.2500      -0.5000      -0.6724      -0.2500       0.5000      -0.6724       0.0100
GW 31 30      -0.2500      -0.5000      -0.5690      -0.2500       0.5000      -0.5690       0.0100
GW 32 30      -0.2500      -0.5000      -0.4655      -0.2500       0.5000      -0.4655       0.0100
GW 33 30      -0.2500      -0.5000      -0.3621      -0.2500       0.5000      -0.3621       0.0100
GW 34 30      -0.2500      -0.5000      -0.2586      -0.2500       0.5000      -0.2586       0.0100
GW 35 30      -0.2500      -0.5000      -0.1552      -0.2500       0.5000      -0.1552       0.0100
GW 36 30      -0.2500      -0.5000      -0.0517      -0.2500       0.5000      -0.0517       0.0100
GW 37 30      -0.2500      -0.5000       0.0517      -0.2500       0.5000       0.0517       0.0100
GW 38 30      -0.2500      -0.5000       0.1552      -0.2500       0.5000       0.1552       0.0100
GW 39 30      -0.2500      -0.5000       0.2586      -0.2500       0.5000       0.2586       0.0100
GW 40 30      -0.2500      -0.5000       0.3621      -0.2500       0.5000       0.3621       0.0100
GW 41 30      -0.2500      -0.5000       0.4655      -0.2500       0.5000       0.4655       0.0100
GW 42 30      -0.2500      -0.5000       0.5690      -0.2500       0.5000       0.5690       0.0100
GW 43 30      -0.2500      -0.5000       0.6724      -0.2500       0.5000       0.6724       0.0100
GW 44 30      -0.2500      -0.5000       0.7759      -0.2500       0.5000       0.7759       0.0100
GW 45 30      -0.2500      -0.5000       0.8793      -0.2500       0.5000       0.8793       0.0100
GW 46 30      -0.2500      -0.5000       0.9828      -0.2500       0.5000       0.9828       0.0100
GW 47 30      -0.2500      -0.5000       1.0862      -0.2500       0.5000       1.0862       0.0100
GW 48 30      -0.2500      -0.5000       1.1897      -0.2500       0.5000       1.1897       0.0100
GW 49 30      -0.2500      -0.5000       1.2931      -0.2500       0.5000       1.2931       0.0100
GW 50 30      -0.2500      -0.5000       1.3966      -0.2500       0.5000       1.3966       0.0100
GW 51 30      -0.2500      -0.5000       1.5000      -0.2500       0.5000       1.5000       0.0100
GE 0
EX 0 1 1 0 1 0
TL      1      1      2      1    100       0.00       0.00       0.00       0.00       0.00
TL      2      1      3      1   -100       0.00       0.00       0.00       0.00       0.00
TL      1      1      4      1    100       0.00       0.00       0.00       0.00       0.00
TL      4      1      5      1   -100       0.00       0.00       0.00       0.00       0.00
EN 
