CM Length L in mtr. = 3
CM Radius R1 in cm. = 9.549
CM Radius R2 in cm. = 9.549
CM Number of turns = 20
CM Segments per turn = 20
CM Rotate X, Y, Z = 0, 0, 0
CM Move X, Y, Z = 0, 0, 0
CE
GW     1    1       .0       .0      .03   .09549       .0      .03     .006
GW     2    1   .09549       .0      .03  .090816  .029508    .0375     .006
GW     3    1  .090816  .029508    .0375  .077253  .056128     .045     .006
GW     4    1  .077253  .056128     .045  .056128  .077253    .0525     .006
GW     5    1  .056128  .077253    .0525  .029508  .090816      .06     .006
GW     6    1  .029508  .090816      .06       .0   .09549    .0675     .006
GW     7    1       .0   .09549    .0675 -.029508  .090816     .075     .006
GW     8    1 -.029508  .090816     .075 -.056128  .077253    .0825     .006
GW     9    1 -.056128  .077253    .0825 -.077253  .056128      .09     .006
GW    10    1 -.077253  .056128      .09 -.090816  .029508    .0975     .006
GW    11    1 -.090816  .029508    .0975  -.09549       .0     .105     .006
GW    12    1  -.09549       .0     .105 -.090816 -.029508    .1125     .006
GW    13    1 -.090816 -.029508    .1125 -.077253 -.056128      .12     .006
GW    14    1 -.077253 -.056128      .12 -.056128 -.077253    .1275     .006
GW    15    1 -.056128 -.077253    .1275 -.029508 -.090816     .135     .006
GW    16    1 -.029508 -.090816     .135       .0  -.09549    .1425     .006
GW    17    1       .0  -.09549    .1425  .029508 -.090816      .15     .006
GW    18    1  .029508 -.090816      .15  .056128 -.077253    .1575     .006
GW    19    1  .056128 -.077253    .1575  .077253 -.056128     .165     .006
GW    20    1  .077253 -.056128     .165  .090816 -.029508    .1725     .006
GW    21    1  .090816 -.029508    .1725   .09549       .0      .18     .006
GW    22    1   .09549       .0      .18  .090816  .029508    .1875     .006
GW    23    1  .090816  .029508    .1875  .077253  .056128     .195     .006
GW    24    1  .077253  .056128     .195  .056128  .077253    .2025     .006
GW    25    1  .056128  .077253    .2025  .029508  .090816      .21     .006
GW    26    1  .029508  .090816      .21       .0   .09549    .2175     .006
GW    27    1       .0   .09549    .2175 -.029508  .090816     .225     .006
GW    28    1 -.029508  .090816     .225 -.056128  .077253    .2325     .006
GW    29    1 -.056128  .077253    .2325 -.077253  .056128      .24     .006
GW    30    1 -.077253  .056128      .24 -.090816  .029508    .2475     .006
GW    31    1 -.090816  .029508    .2475  -.09549       .0     .255     .006
GW    32    1  -.09549       .0     .255 -.090816 -.029508    .2625     .006
GW    33    1 -.090816 -.029508    .2625 -.077253 -.056128      .27     .006
GW    34    1 -.077253 -.056128      .27 -.056128 -.077253    .2775     .006
GW    35    1 -.056128 -.077253    .2775 -.029508 -.090816     .285     .006
GW    36    1 -.029508 -.090816     .285       .0  -.09549    .2925     .006
GW    37    1       .0  -.09549    .2925  .029508 -.090816       .3     .006
GW    38    1  .029508 -.090816       .3  .056128 -.077253    .3075     .006
GW    39    1  .056128 -.077253    .3075  .077253 -.056128     .315     .006
GW    40    1  .077253 -.056128     .315  .090816 -.029508    .3225     .006
GW    41    1  .090816 -.029508    .3225   .09549       .0      .33     .006
GW    42    1   .09549       .0      .33  .090816  .029508    .3375     .006
GW    43    1  .090816  .029508    .3375  .077253  .056128     .345     .006
GW    44    1  .077253  .056128     .345  .056128  .077253    .3525     .006
GW    45    1  .056128  .077253    .3525  .029508  .090816      .36     .006
GW    46    1  .029508  .090816      .36       .0   .09549    .3675     .006
GW    47    1       .0   .09549    .3675 -.029508  .090816     .375     .006
GW    48    1 -.029508  .090816     .375 -.056128  .077253    .3825     .006
GW    49    1 -.056128  .077253    .3825 -.077253  .056128      .39     .006
GW    50    1 -.077253  .056128      .39 -.090816  .029508    .3975     .006
GW    51    1 -.090816  .029508    .3975  -.09549       .0     .405     .006
GW    52    1  -.09549       .0     .405 -.090816 -.029508    .4125     .006
GW    53    1 -.090816 -.029508    .4125 -.077253 -.056128      .42     .006
GW    54    1 -.077253 -.056128      .42 -.056128 -.077253    .4275     .006
GW    55    1 -.056128 -.077253    .4275 -.029508 -.090816     .435     .006
GW    56    1 -.029508 -.090816     .435       .0  -.09549    .4425     .006
GW    57    1       .0  -.09549    .4425  .029508 -.090816      .45     .006
GW    58    1  .029508 -.090816      .45  .056128 -.077253    .4575     .006
GW    59    1  .056128 -.077253    .4575  .077253 -.056128     .465     .006
GW    60    1  .077253 -.056128     .465  .090816 -.029508    .4725     .006
GW    61    1  .090816 -.029508    .4725   .09549       .0      .48     .006
GW    62    1   .09549       .0      .48  .090816  .029508    .4875     .006
GW    63    1  .090816  .029508    .4875  .077253  .056128     .495     .006
GW    64    1  .077253  .056128     .495  .056128  .077253    .5025     .006
GW    65    1  .056128  .077253    .5025  .029508  .090816      .51     .006
GW    66    1  .029508  .090816      .51       .0   .09549    .5175     .006
GW    67    1       .0   .09549    .5175 -.029508  .090816     .525     .006
GW    68    1 -.029508  .090816     .525 -.056128  .077253    .5325     .006
GW    69    1 -.056128  .077253    .5325 -.077253  .056128      .54     .006
GW    70    1 -.077253  .056128      .54 -.090816  .029508    .5475     .006
GW    71    1 -.090816  .029508    .5475  -.09549       .0     .555     .006
GW    72    1  -.09549       .0     .555 -.090816 -.029508    .5625     .006
GW    73    1 -.090816 -.029508    .5625 -.077253 -.056128      .57     .006
GW    74    1 -.077253 -.056128      .57 -.056128 -.077253    .5775     .006
GW    75    1 -.056128 -.077253    .5775 -.029508 -.090816     .585     .006
GW    76    1 -.029508 -.090816     .585       .0  -.09549    .5925     .006
GW    77    1       .0  -.09549    .5925  .029508 -.090816       .6     .006
GW    78    1  .029508 -.090816       .6  .056128 -.077253    .6075     .006
GW    79    1  .056128 -.077253    .6075  .077253 -.056128     .615     .006
GW    80    1  .077253 -.056128     .615  .090816 -.029508    .6225     .006
GW    81    1  .090816 -.029508    .6225   .09549       .0      .63     .006
GW    82    1   .09549       .0      .63  .090816  .029508    .6375     .006
GW    83    1  .090816  .029508    .6375  .077253  .056128     .645     .006
GW    84    1  .077253  .056128     .645  .056128  .077253    .6525     .006
GW    85    1  .056128  .077253    .6525  .029508  .090816      .66     .006
GW    86    1  .029508  .090816      .66       .0   .09549    .6675     .006
GW    87    1       .0   .09549    .6675 -.029508  .090816     .675     .006
GW    88    1 -.029508  .090816     .675 -.056128  .077253    .6825     .006
GW    89    1 -.056128  .077253    .6825 -.077253  .056128      .69     .006
GW    90    1 -.077253  .056128      .69 -.090816  .029508    .6975     .006
GW    91    1 -.090816  .029508    .6975  -.09549       .0     .705     .006
GW    92    1  -.09549       .0     .705 -.090816 -.029508    .7125     .006
GW    93    1 -.090816 -.029508    .7125 -.077253 -.056128      .72     .006
GW    94    1 -.077253 -.056128      .72 -.056128 -.077253    .7275     .006
GW    95    1 -.056128 -.077253    .7275 -.029508 -.090816     .735     .006
GW    96    1 -.029508 -.090816     .735       .0  -.09549    .7425     .006
GW    97    1       .0  -.09549    .7425  .029508 -.090816      .75     .006
GW    98    1  .029508 -.090816      .75  .056128 -.077253    .7575     .006
GW    99    1  .056128 -.077253    .7575  .077253 -.056128     .765     .006
GW   100    1  .077253 -.056128     .765  .090816 -.029508    .7725     .006
GW   101    1  .090816 -.029508    .7725   .09549       .0      .78     .006
GW   102    1   .09549       .0      .78  .090816  .029508    .7875     .006
GW   103    1  .090816  .029508    .7875  .077253  .056128     .795     .006
GW   104    1  .077253  .056128     .795  .056128  .077253    .8025     .006
GW   105    1  .056128  .077253    .8025  .029508  .090816      .81     .006
GW   106    1  .029508  .090816      .81       .0   .09549    .8175     .006
GW   107    1       .0   .09549    .8175 -.029508  .090816     .825     .006
GW   108    1 -.029508  .090816     .825 -.056128  .077253    .8325     .006
GW   109    1 -.056128  .077253    .8325 -.077253  .056128      .84     .006
GW   110    1 -.077253  .056128      .84 -.090816  .029508    .8475     .006
GW   111    1 -.090816  .029508    .8475  -.09549       .0     .855     .006
GW   112    1  -.09549       .0     .855 -.090816 -.029508    .8625     .006
GW   113    1 -.090816 -.029508    .8625 -.077253 -.056128      .87     .006
GW   114    1 -.077253 -.056128      .87 -.056128 -.077253    .8775     .006
GW   115    1 -.056128 -.077253    .8775 -.029508 -.090816     .885     .006
GW   116    1 -.029508 -.090816     .885       .0  -.09549    .8925     .006
GW   117    1       .0  -.09549    .8925  .029508 -.090816       .9     .006
GW   118    1  .029508 -.090816       .9  .056128 -.077253    .9075     .006
GW   119    1  .056128 -.077253    .9075  .077253 -.056128     .915     .006
GW   120    1  .077253 -.056128     .915  .090816 -.029508    .9225     .006
GW   121    1  .090816 -.029508    .9225   .09549       .0      .93     .006
GW   122    1   .09549       .0      .93  .090816  .029508    .9375     .006
GW   123    1  .090816  .029508    .9375  .077253  .056128     .945     .006
GW   124    1  .077253  .056128     .945  .056128  .077253    .9525     .006
GW   125    1  .056128  .077253    .9525  .029508  .090816      .96     .006
GW   126    1  .029508  .090816      .96       .0   .09549    .9675     .006
GW   127    1       .0   .09549    .9675 -.029508  .090816     .975     .006
GW   128    1 -.029508  .090816     .975 -.056128  .077253    .9825     .006
GW   129    1 -.056128  .077253    .9825 -.077253  .056128      .99     .006
GW   130    1 -.077253  .056128      .99 -.090816  .029508    .9975     .006
GW   131    1 -.090816  .029508    .9975  -.09549       .0    1.005     .006
GW   132    1  -.09549       .0    1.005 -.090816 -.029508    1.013     .006
GW   133    1 -.090816 -.029508    1.013 -.077253 -.056128     1.02     .006
GW   134    1 -.077253 -.056128     1.02 -.056128 -.077253    1.028     .006
GW   135    1 -.056128 -.077253    1.028 -.029508 -.090816    1.035     .006
GW   136    1 -.029508 -.090816    1.035       .0  -.09549    1.043     .006
GW   137    1       .0  -.09549    1.043  .029508 -.090816     1.05     .006
GW   138    1  .029508 -.090816     1.05  .056128 -.077253    1.058     .006
GW   139    1  .056128 -.077253    1.058  .077253 -.056128    1.065     .006
GW   140    1  .077253 -.056128    1.065  .090816 -.029508    1.073     .006
GW   141    1  .090816 -.029508    1.073   .09549       .0     1.08     .006
GW   142    1   .09549       .0     1.08  .090816  .029508    1.088     .006
GW   143    1  .090816  .029508    1.088  .077253  .056128    1.095     .006
GW   144    1  .077253  .056128    1.095  .056128  .077253    1.103     .006
GW   145    1  .056128  .077253    1.103  .029508  .090816     1.11     .006
GW   146    1  .029508  .090816     1.11       .0   .09549    1.118     .006
GW   147    1       .0   .09549    1.118 -.029508  .090816    1.125     .006
GW   148    1 -.029508  .090816    1.125 -.056128  .077253    1.133     .006
GW   149    1 -.056128  .077253    1.133 -.077253  .056128     1.14     .006
GW   150    1 -.077253  .056128     1.14 -.090816  .029508    1.148     .006
GW   151    1 -.090816  .029508    1.148  -.09549       .0    1.155     .006
GW   152    1  -.09549       .0    1.155 -.090816 -.029508    1.163     .006
GW   153    1 -.090816 -.029508    1.163 -.077253 -.056128     1.17     .006
GW   154    1 -.077253 -.056128     1.17 -.056128 -.077253    1.178     .006
GW   155    1 -.056128 -.077253    1.178 -.029508 -.090816    1.185     .006
GW   156    1 -.029508 -.090816    1.185       .0  -.09549    1.193     .006
GW   157    1       .0  -.09549    1.193  .029508 -.090816      1.2     .006
GW   158    1  .029508 -.090816      1.2  .056128 -.077253    1.208     .006
GW   159    1  .056128 -.077253    1.208  .077253 -.056128    1.215     .006
GW   160    1  .077253 -.056128    1.215  .090816 -.029508    1.223     .006
GW   161    1  .090816 -.029508    1.223   .09549       .0     1.23     .006
GW   162    1   .09549       .0     1.23  .090816  .029508    1.238     .006
GW   163    1  .090816  .029508    1.238  .077253  .056128    1.245     .006
GW   164    1  .077253  .056128    1.245  .056128  .077253    1.253     .006
GW   165    1  .056128  .077253    1.253  .029508  .090816     1.26     .006
GW   166    1  .029508  .090816     1.26       .0   .09549    1.268     .006
GW   167    1       .0   .09549    1.268 -.029508  .090816    1.275     .006
GW   168    1 -.029508  .090816    1.275 -.056128  .077253    1.283     .006
GW   169    1 -.056128  .077253    1.283 -.077253  .056128     1.29     .006
GW   170    1 -.077253  .056128     1.29 -.090816  .029508    1.298     .006
GW   171    1 -.090816  .029508    1.298  -.09549       .0    1.305     .006
GW   172    1  -.09549       .0    1.305 -.090816 -.029508    1.313     .006
GW   173    1 -.090816 -.029508    1.313 -.077253 -.056128     1.32     .006
GW   174    1 -.077253 -.056128     1.32 -.056128 -.077253    1.328     .006
GW   175    1 -.056128 -.077253    1.328 -.029508 -.090816    1.335     .006
GW   176    1 -.029508 -.090816    1.335       .0  -.09549    1.343     .006
GW   177    1       .0  -.09549    1.343  .029508 -.090816     1.35     .006
GW   178    1  .029508 -.090816     1.35  .056128 -.077253    1.358     .006
GW   179    1  .056128 -.077253    1.358  .077253 -.056128    1.365     .006
GW   180    1  .077253 -.056128    1.365  .090816 -.029508    1.373     .006
GW   181    1  .090816 -.029508    1.373   .09549       .0     1.38     .006
GW   182    1   .09549       .0     1.38  .090816  .029508    1.388     .006
GW   183    1  .090816  .029508    1.388  .077253  .056128    1.395     .006
GW   184    1  .077253  .056128    1.395  .056128  .077253    1.403     .006
GW   185    1  .056128  .077253    1.403  .029508  .090816     1.41     .006
GW   186    1  .029508  .090816     1.41       .0   .09549    1.418     .006
GW   187    1       .0   .09549    1.418 -.029508  .090816    1.425     .006
GW   188    1 -.029508  .090816    1.425 -.056128  .077253    1.433     .006
GW   189    1 -.056128  .077253    1.433 -.077253  .056128     1.44     .006
GW   190    1 -.077253  .056128     1.44 -.090816  .029508    1.448     .006
GW   191    1 -.090816  .029508    1.448  -.09549       .0    1.455     .006
GW   192    1  -.09549       .0    1.455 -.090816 -.029508    1.463     .006
GW   193    1 -.090816 -.029508    1.463 -.077253 -.056128     1.47     .006
GW   194    1 -.077253 -.056128     1.47 -.056128 -.077253    1.478     .006
GW   195    1 -.056128 -.077253    1.478 -.029508 -.090816    1.485     .006
GW   196    1 -.029508 -.090816    1.485       .0  -.09549    1.493     .006
GW   197    1       .0  -.09549    1.493  .029508 -.090816      1.5     .006
GW   198    1  .029508 -.090816      1.5  .056128 -.077253    1.508     .006
GW   199    1  .056128 -.077253    1.508  .077253 -.056128    1.515     .006
GW   200    1  .077253 -.056128    1.515  .090816 -.029508    1.523     .006
GW   201    1  .090816 -.029508    1.523   .09549       .0     1.53     .006
GW   202    1   .09549       .0     1.53  .090816  .029508    1.538     .006
GW   203    1  .090816  .029508    1.538  .077253  .056128    1.545     .006
GW   204    1  .077253  .056128    1.545  .056128  .077253    1.553     .006
GW   205    1  .056128  .077253    1.553  .029508  .090816     1.56     .006
GW   206    1  .029508  .090816     1.56       .0   .09549    1.568     .006
GW   207    1       .0   .09549    1.568 -.029508  .090816    1.575     .006
GW   208    1 -.029508  .090816    1.575 -.056128  .077253    1.583     .006
GW   209    1 -.056128  .077253    1.583 -.077253  .056128     1.59     .006
GW   210    1 -.077253  .056128     1.59 -.090816  .029508    1.598     .006
GW   211    1 -.090816  .029508    1.598  -.09549       .0    1.605     .006
GW   212    1  -.09549       .0    1.605 -.090816 -.029508    1.613     .006
GW   213    1 -.090816 -.029508    1.613 -.077253 -.056128     1.62     .006
GW   214    1 -.077253 -.056128     1.62 -.056128 -.077253    1.628     .006
GW   215    1 -.056128 -.077253    1.628 -.029508 -.090816    1.635     .006
GW   216    1 -.029508 -.090816    1.635       .0  -.09549    1.643     .006
GW   217    1       .0  -.09549    1.643  .029508 -.090816     1.65     .006
GW   218    1  .029508 -.090816     1.65  .056128 -.077253    1.658     .006
GW   219    1  .056128 -.077253    1.658  .077253 -.056128    1.665     .006
GW   220    1  .077253 -.056128    1.665  .090816 -.029508    1.673     .006
GW   221    1  .090816 -.029508    1.673   .09549       .0     1.68     .006
GW   222    1   .09549       .0     1.68  .090816  .029508    1.688     .006
GW   223    1  .090816  .029508    1.688  .077253  .056128    1.695     .006
GW   224    1  .077253  .056128    1.695  .056128  .077253    1.703     .006
GW   225    1  .056128  .077253    1.703  .029508  .090816     1.71     .006
GW   226    1  .029508  .090816     1.71       .0   .09549    1.718     .006
GW   227    1       .0   .09549    1.718 -.029508  .090816    1.725     .006
GW   228    1 -.029508  .090816    1.725 -.056128  .077253    1.733     .006
GW   229    1 -.056128  .077253    1.733 -.077253  .056128     1.74     .006
GW   230    1 -.077253  .056128     1.74 -.090816  .029508    1.748     .006
GW   231    1 -.090816  .029508    1.748  -.09549       .0    1.755     .006
GW   232    1  -.09549       .0    1.755 -.090816 -.029508    1.763     .006
GW   233    1 -.090816 -.029508    1.763 -.077253 -.056128     1.77     .006
GW   234    1 -.077253 -.056128     1.77 -.056128 -.077253    1.778     .006
GW   235    1 -.056128 -.077253    1.778 -.029508 -.090816    1.785     .006
GW   236    1 -.029508 -.090816    1.785       .0  -.09549    1.793     .006
GW   237    1       .0  -.09549    1.793  .029508 -.090816      1.8     .006
GW   238    1  .029508 -.090816      1.8  .056128 -.077253    1.808     .006
GW   239    1  .056128 -.077253    1.808  .077253 -.056128    1.815     .006
GW   240    1  .077253 -.056128    1.815  .090816 -.029508    1.823     .006
GW   241    1  .090816 -.029508    1.823   .09549       .0     1.83     .006
GW   242    1   .09549       .0     1.83  .090816  .029508    1.838     .006
GW   243    1  .090816  .029508    1.838  .077253  .056128    1.845     .006
GW   244    1  .077253  .056128    1.845  .056128  .077253    1.853     .006
GW   245    1  .056128  .077253    1.853  .029508  .090816     1.86     .006
GW   246    1  .029508  .090816     1.86       .0   .09549    1.868     .006
GW   247    1       .0   .09549    1.868 -.029508  .090816    1.875     .006
GW   248    1 -.029508  .090816    1.875 -.056128  .077253    1.883     .006
GW   249    1 -.056128  .077253    1.883 -.077253  .056128     1.89     .006
GW   250    1 -.077253  .056128     1.89 -.090816  .029508    1.898     .006
GW   251    1 -.090816  .029508    1.898  -.09549       .0    1.905     .006
GW   252    1  -.09549       .0    1.905 -.090816 -.029508    1.913     .006
GW   253    1 -.090816 -.029508    1.913 -.077253 -.056128     1.92     .006
GW   254    1 -.077253 -.056128     1.92 -.056128 -.077253    1.928     .006
GW   255    1 -.056128 -.077253    1.928 -.029508 -.090816    1.935     .006
GW   256    1 -.029508 -.090816    1.935       .0  -.09549    1.943     .006
GW   257    1       .0  -.09549    1.943  .029508 -.090816     1.95     .006
GW   258    1  .029508 -.090816     1.95  .056128 -.077253    1.958     .006
GW   259    1  .056128 -.077253    1.958  .077253 -.056128    1.965     .006
GW   260    1  .077253 -.056128    1.965  .090816 -.029508    1.973     .006
GW   261    1  .090816 -.029508    1.973   .09549       .0     1.98     .006
GW   262    1   .09549       .0     1.98  .090816  .029508    1.988     .006
GW   263    1  .090816  .029508    1.988  .077253  .056128    1.995     .006
GW   264    1  .077253  .056128    1.995  .056128  .077253    2.003     .006
GW   265    1  .056128  .077253    2.003  .029508  .090816     2.01     .006
GW   266    1  .029508  .090816     2.01       .0   .09549    2.018     .006
GW   267    1       .0   .09549    2.018 -.029508  .090816    2.025     .006
GW   268    1 -.029508  .090816    2.025 -.056128  .077253    2.033     .006
GW   269    1 -.056128  .077253    2.033 -.077253  .056128     2.04     .006
GW   270    1 -.077253  .056128     2.04 -.090816  .029508    2.048     .006
GW   271    1 -.090816  .029508    2.048  -.09549       .0    2.055     .006
GW   272    1  -.09549       .0    2.055 -.090816 -.029508    2.063     .006
GW   273    1 -.090816 -.029508    2.063 -.077253 -.056128     2.07     .006
GW   274    1 -.077253 -.056128     2.07 -.056128 -.077253    2.078     .006
GW   275    1 -.056128 -.077253    2.078 -.029508 -.090816    2.085     .006
GW   276    1 -.029508 -.090816    2.085       .0  -.09549    2.093     .006
GW   277    1       .0  -.09549    2.093  .029508 -.090816      2.1     .006
GW   278    1  .029508 -.090816      2.1  .056128 -.077253    2.108     .006
GW   279    1  .056128 -.077253    2.108  .077253 -.056128    2.115     .006
GW   280    1  .077253 -.056128    2.115  .090816 -.029508    2.123     .006
GW   281    1  .090816 -.029508    2.123   .09549       .0     2.13     .006
GW   282    1   .09549       .0     2.13  .090816  .029508    2.138     .006
GW   283    1  .090816  .029508    2.138  .077253  .056128    2.145     .006
GW   284    1  .077253  .056128    2.145  .056128  .077253    2.153     .006
GW   285    1  .056128  .077253    2.153  .029508  .090816     2.16     .006
GW   286    1  .029508  .090816     2.16       .0   .09549    2.168     .006
GW   287    1       .0   .09549    2.168 -.029508  .090816    2.175     .006
GW   288    1 -.029508  .090816    2.175 -.056128  .077253    2.183     .006
GW   289    1 -.056128  .077253    2.183 -.077253  .056128     2.19     .006
GW   290    1 -.077253  .056128     2.19 -.090816  .029508    2.198     .006
GW   291    1 -.090816  .029508    2.198  -.09549       .0    2.205     .006
GW   292    1  -.09549       .0    2.205 -.090816 -.029508    2.213     .006
GW   293    1 -.090816 -.029508    2.213 -.077253 -.056128     2.22     .006
GW   294    1 -.077253 -.056128     2.22 -.056128 -.077253    2.228     .006
GW   295    1 -.056128 -.077253    2.228 -.029508 -.090816    2.235     .006
GW   296    1 -.029508 -.090816    2.235       .0  -.09549    2.243     .006
GW   297    1       .0  -.09549    2.243  .029508 -.090816     2.25     .006
GW   298    1  .029508 -.090816     2.25  .056128 -.077253    2.258     .006
GW   299    1  .056128 -.077253    2.258  .077253 -.056128    2.265     .006
GW   300    1  .077253 -.056128    2.265  .090816 -.029508    2.273     .006
GW   301    1  .090816 -.029508    2.273   .09549       .0     2.28     .006
GW   302    1   .09549       .0     2.28  .090816  .029508    2.288     .006
GW   303    1  .090816  .029508    2.288  .077253  .056128    2.295     .006
GW   304    1  .077253  .056128    2.295  .056128  .077253    2.303     .006
GW   305    1  .056128  .077253    2.303  .029508  .090816     2.31     .006
GW   306    1  .029508  .090816     2.31       .0   .09549    2.318     .006
GW   307    1       .0   .09549    2.318 -.029508  .090816    2.325     .006
GW   308    1 -.029508  .090816    2.325 -.056128  .077253    2.333     .006
GW   309    1 -.056128  .077253    2.333 -.077253  .056128     2.34     .006
GW   310    1 -.077253  .056128     2.34 -.090816  .029508    2.348     .006
GW   311    1 -.090816  .029508    2.348  -.09549       .0    2.355     .006
GW   312    1  -.09549       .0    2.355 -.090816 -.029508    2.363     .006
GW   313    1 -.090816 -.029508    2.363 -.077253 -.056128     2.37     .006
GW   314    1 -.077253 -.056128     2.37 -.056128 -.077253    2.378     .006
GW   315    1 -.056128 -.077253    2.378 -.029508 -.090816    2.385     .006
GW   316    1 -.029508 -.090816    2.385       .0  -.09549    2.393     .006
GW   317    1       .0  -.09549    2.393  .029508 -.090816      2.4     .006
GW   318    1  .029508 -.090816      2.4  .056128 -.077253    2.408     .006
GW   319    1  .056128 -.077253    2.408  .077253 -.056128    2.415     .006
GW   320    1  .077253 -.056128    2.415  .090816 -.029508    2.423     .006
GW   321    1  .090816 -.029508    2.423   .09549       .0     2.43     .006
GW   322    1   .09549       .0     2.43  .090816  .029508    2.438     .006
GW   323    1  .090816  .029508    2.438  .077253  .056128    2.445     .006
GW   324    1  .077253  .056128    2.445  .056128  .077253    2.453     .006
GW   325    1  .056128  .077253    2.453  .029508  .090816     2.46     .006
GW   326    1  .029508  .090816     2.46       .0   .09549    2.468     .006
GW   327    1       .0   .09549    2.468 -.029508  .090816    2.475     .006
GW   328    1 -.029508  .090816    2.475 -.056128  .077253    2.483     .006
GW   329    1 -.056128  .077253    2.483 -.077253  .056128     2.49     .006
GW   330    1 -.077253  .056128     2.49 -.090816  .029508    2.498     .006
GW   331    1 -.090816  .029508    2.498  -.09549       .0    2.505     .006
GW   332    1  -.09549       .0    2.505 -.090816 -.029508    2.513     .006
GW   333    1 -.090816 -.029508    2.513 -.077253 -.056128     2.52     .006
GW   334    1 -.077253 -.056128     2.52 -.056128 -.077253    2.528     .006
GW   335    1 -.056128 -.077253    2.528 -.029508 -.090816    2.535     .006
GW   336    1 -.029508 -.090816    2.535       .0  -.09549    2.543     .006
GW   337    1       .0  -.09549    2.543  .029508 -.090816     2.55     .006
GW   338    1  .029508 -.090816     2.55  .056128 -.077253    2.558     .006
GW   339    1  .056128 -.077253    2.558  .077253 -.056128    2.565     .006
GW   340    1  .077253 -.056128    2.565  .090816 -.029508    2.573     .006
GW   341    1  .090816 -.029508    2.573   .09549       .0     2.58     .006
GW   342    1   .09549       .0     2.58  .090816  .029508    2.588     .006
GW   343    1  .090816  .029508    2.588  .077253  .056128    2.595     .006
GW   344    1  .077253  .056128    2.595  .056128  .077253    2.603     .006
GW   345    1  .056128  .077253    2.603  .029508  .090816     2.61     .006
GW   346    1  .029508  .090816     2.61       .0   .09549    2.618     .006
GW   347    1       .0   .09549    2.618 -.029508  .090816    2.625     .006
GW   348    1 -.029508  .090816    2.625 -.056128  .077253    2.633     .006
GW   349    1 -.056128  .077253    2.633 -.077253  .056128     2.64     .006
GW   350    1 -.077253  .056128     2.64 -.090816  .029508    2.648     .006
GW   351    1 -.090816  .029508    2.648  -.09549       .0    2.655     .006
GW   352    1  -.09549       .0    2.655 -.090816 -.029508    2.663     .006
GW   353    1 -.090816 -.029508    2.663 -.077253 -.056128     2.67     .006
GW   354    1 -.077253 -.056128     2.67 -.056128 -.077253    2.678     .006
GW   355    1 -.056128 -.077253    2.678 -.029508 -.090816    2.685     .006
GW   356    1 -.029508 -.090816    2.685       .0  -.09549    2.693     .006
GW   357    1       .0  -.09549    2.693  .029508 -.090816      2.7     .006
GW   358    1  .029508 -.090816      2.7  .056128 -.077253    2.708     .006
GW   359    1  .056128 -.077253    2.708  .077253 -.056128    2.715     .006
GW   360    1  .077253 -.056128    2.715  .090816 -.029508    2.723     .006
GW   361    1  .090816 -.029508    2.723   .09549       .0     2.73     .006
GW   362    1   .09549       .0     2.73  .090816  .029508    2.738     .006
GW   363    1  .090816  .029508    2.738  .077253  .056128    2.745     .006
GW   364    1  .077253  .056128    2.745  .056128  .077253    2.753     .006
GW   365    1  .056128  .077253    2.753  .029508  .090816     2.76     .006
GW   366    1  .029508  .090816     2.76       .0   .09549    2.768     .006
GW   367    1       .0   .09549    2.768 -.029508  .090816    2.775     .006
GW   368    1 -.029508  .090816    2.775 -.056128  .077253    2.783     .006
GW   369    1 -.056128  .077253    2.783 -.077253  .056128     2.79     .006
GW   370    1 -.077253  .056128     2.79 -.090816  .029508    2.798     .006
GW   371    1 -.090816  .029508    2.798  -.09549       .0    2.805     .006
GW   372    1  -.09549       .0    2.805 -.090816 -.029508    2.813     .006
GW   373    1 -.090816 -.029508    2.813 -.077253 -.056128     2.82     .006
GW   374    1 -.077253 -.056128     2.82 -.056128 -.077253    2.828     .006
GW   375    1 -.056128 -.077253    2.828 -.029508 -.090816    2.835     .006
GW   376    1 -.029508 -.090816    2.835       .0  -.09549    2.843     .006
GW   377    1       .0  -.09549    2.843  .029508 -.090816     2.85     .006
GW   378    1  .029508 -.090816     2.85  .056128 -.077253    2.858     .006
GW   379    1  .056128 -.077253    2.858  .077253 -.056128    2.865     .006
GW   380    1  .077253 -.056128    2.865  .090816 -.029508    2.873     .006
GW   381    1  .090816 -.029508    2.873   .09549       .0     2.88     .006
GW   382    1   .09549       .0     2.88  .090816  .029508    2.888     .006