CM Start angle A1 = 0
CM Stop angle A2 = 360
CM Radial sections = 12
CM Circular sections = 5
CM Rotate X, Y, Z = 0, 0, 0
CM Move X, Y, Z = 0, 0, 0
CE
GW   404    5       .0       .0       .0      .06       .0       .0     .006
GW   405    5      .06       .0       .0      .12       .0       .0     .006
GW   406    5      .12       .0       .0      .18       .0       .0     .006
GW   407    5      .18       .0       .0      .24       .0       .0     .006
GW   408    5      .24       .0       .0       .3       .0       .0     .006
GW   409    5       .0       .0       .0  .051962      .03       .0     .006
GW   410    5  .051962      .03       .0  .103923      .06       .0     .006
GW   411    5  .103923      .06       .0  .155885      .09       .0     .006
GW   412    5  .155885      .09       .0  .207846      .12       .0     .006
GW   413    5  .207846      .12       .0  .259808      .15       .0     .006
GW   414    5       .0       .0       .0      .03  .051962       .0     .006
GW   415    5      .03  .051962       .0      .06  .103923       .0     .006
GW   416    5      .06  .103923       .0      .09  .155885       .0     .006
GW   417    5      .09  .155885       .0      .12  .207846       .0     .006
GW   418    5      .12  .207846       .0      .15  .259808       .0     .006
GW   419    5       .0       .0       .0       .0      .06       .0     .006
GW   420    5       .0      .06       .0       .0      .12       .0     .006
GW   421    5       .0      .12       .0       .0      .18       .0     .006
GW   422    5       .0      .18       .0       .0      .24       .0     .006
GW   423    5       .0      .24       .0       .0       .3       .0     .006
GW   424    5       .0       .0       .0     -.03  .051962       .0     .006
GW   425    5     -.03  .051962       .0     -.06  .103923       .0     .006
GW   426    5     -.06  .103923       .0     -.09  .155885       .0     .006
GW   427    5     -.09  .155885       .0     -.12  .207846       .0     .006
GW   428    5     -.12  .207846       .0     -.15  .259808       .0     .006
GW   429    5       .0       .0       .0 -.051962      .03       .0     .006
GW   430    5 -.051962      .03       .0 -.103923      .06       .0     .006
GW   431    5 -.103923      .06       .0 -.155885      .09       .0     .006
GW   432    5 -.155885      .09       .0 -.207846      .12       .0     .006
GW   433    5 -.207846      .12       .0 -.259808      .15       .0     .006
GW   434    5       .0       .0       .0     -.06       .0       .0     .006
GW   435    5     -.06       .0       .0     -.12       .0       .0     .006
GW   436    5     -.12       .0       .0     -.18       .0       .0     .006
GW   437    5     -.18       .0       .0     -.24       .0       .0     .006
GW   438    5     -.24       .0       .0      -.3       .0       .0     .006
GW   439    5       .0       .0       .0 -.051962     -.03       .0     .006
GW   440    5 -.051962     -.03       .0 -.103923     -.06       .0     .006
GW   441    5 -.103923     -.06       .0 -.155885     -.09       .0     .006
GW   442    5 -.155885     -.09       .0 -.207846     -.12       .0     .006
GW   443    5 -.207846     -.12       .0 -.259808     -.15       .0     .006
GW   444    5       .0       .0       .0     -.03 -.051962       .0     .006
GW   445    5     -.03 -.051962       .0     -.06 -.103923       .0     .006
GW   446    5     -.06 -.103923       .0     -.09 -.155885       .0     .006
GW   447    5     -.09 -.155885       .0     -.12 -.207846       .0     .006
GW   448    5     -.12 -.207846       .0     -.15 -.259808       .0     .006
GW   449    5       .0       .0       .0       .0     -.06       .0     .006
GW   450    5       .0     -.06       .0       .0     -.12       .0     .006
GW   451    5       .0     -.12       .0       .0     -.18       .0     .006
GW   452    5       .0     -.18       .0       .0     -.24       .0     .006
GW   453    5       .0     -.24       .0       .0      -.3       .0     .006
GW   454    5       .0       .0       .0      .03 -.051962       .0     .006
GW   455    5      .03 -.051962       .0      .06 -.103923       .0     .006
GW   456    5      .06 -.103923       .0      .09 -.155885       .0     .006
GW   457    5      .09 -.155885       .0      .12 -.207846       .0     .006
GW   458    5      .12 -.207846       .0      .15 -.259808       .0     .006
GW   459    5       .0       .0       .0  .051962     -.03       .0     .006
GW   460    5  .051962     -.03       .0  .103923     -.06       .0     .006
GW   461    5  .103923     -.06       .0  .155885     -.09       .0     .006
GW   462    5  .155885     -.09       .0  .207846     -.12       .0     .006
GW   463    5  .207846     -.12       .0  .259808     -.15       .0     .006
GW   464    5      .06       .0       .0  .051962      .03       .0     .006
GW   465    5  .051962      .03       .0      .03  .051962       .0     .006
GW   466    5      .03  .051962       .0       .0      .06       .0     .006
GW   467    5       .0      .06       .0     -.03  .051962       .0     .006
GW   468    5     -.03  .051962       .0 -.051962      .03       .0     .006
GW   469    5 -.051962      .03       .0     -.06       .0       .0     .006
GW   470    5     -.06       .0       .0 -.051962     -.03       .0     .006
GW   471    5 -.051962     -.03       .0     -.03 -.051962       .0     .006
GW   472    5     -.03 -.051962       .0       .0     -.06       .0     .006
GW   473    5       .0     -.06       .0      .03 -.051962       .0     .006
GW   474    5      .03 -.051962       .0  .051962     -.03       .0     .006
GW   475    5  .051962     -.03       .0      .06       .0       .0     .006
GW   476    5      .12       .0       .0  .103923      .06       .0     .006
GW   477    5  .103923      .06       .0      .06  .103923       .0     .006
GW   478    5      .06  .103923       .0       .0      .12       .0     .006
GW   479    5       .0      .12       .0     -.06  .103923       .0     .006
GW   480    5     -.06  .103923       .0 -.103923      .06       .0     .006
GW   481    5 -.103923      .06       .0     -.12       .0       .0     .006
GW   482    5     -.12       .0       .0 -.103923     -.06       .0     .006
GW   483    5 -.103923     -.06       .0     -.06 -.103923       .0     .006
GW   484    5     -.06 -.103923       .0       .0     -.12       .0     .006
GW   485    5       .0     -.12       .0      .06 -.103923       .0     .006
GW   486    5      .06 -.103923       .0  .103923     -.06       .0     .006
GW   487    5  .103923     -.06       .0      .12       .0       .0     .006
GW   488    5      .18       .0       .0  .155885      .09       .0     .006
GW   489    5  .155885      .09       .0      .09  .155885       .0     .006
GW   490    5      .09  .155885       .0       .0      .18       .0     .006
GW   491    5       .0      .18       .0     -.09  .155885       .0     .006
GW   492    5     -.09  .155885       .0 -.155885      .09       .0     .006
GW   493    5 -.155885      .09       .0     -.18       .0       .0     .006
GW   494    5     -.18       .0       .0 -.155885     -.09       .0     .006
GW   495    5 -.155885     -.09       .0     -.09 -.155885       .0     .006
GW   496    5     -.09 -.155885       .0       .0     -.18       .0     .006
GW   497    5       .0     -.18       .0      .09 -.155885       .0     .006
GW   498    5      .09 -.155885       .0  .155885     -.09       .0     .006
GW   499    5  .155885     -.09       .0      .18       .0       .0     .006
GW   500    5      .24       .0       .0  .207846      .12       .0     .006
GW   501    5  .207846      .12       .0      .12  .207846       .0     .006
GW   502    5      .12  .207846       .0       .0      .24       .0     .006
GW   503    5       .0      .24       .0     -.12  .207846       .0     .006
GW   504    5     -.12  .207846       .0 -.207846      .12       .0     .006
GW   505    5 -.207846      .12       .0     -.24       .0       .0     .006
GW   506    5     -.24       .0       .0 -.207846     -.12       .0     .006
GW   507    5 -.207846     -.12       .0     -.12 -.207846       .0     .006
GW   508    5     -.12 -.207846       .0       .0     -.24       .0     .006
GW   509    5       .0     -.24       .0      .12 -.207846       .0     .006
GW   510    5      .12 -.207846       .0  .207846     -.12       .0     .006
GW   511    5  .207846     -.12       .0      .24       .0       .0     .006
GW   512    5       .3       .0       .0  .259808      .15       .0     .006
GW   513    5  .259808      .15       .0      .15  .259808       .0     .006
GW   514    5      .15  .259808       .0       .0       .3       .0     .006
GW   515    5       .0       .3       .0     -.15  .259808       .0     .006
GW   516    5     -.15  .259808       .0 -.259808      .15       .0     .006
GW   517    5 -.259808      .15       .0      -.3       .0       .0     .006
GW   518    5      -.3       .0       .0 -.259808     -.15       .0     .006
GW   519    5 -.259808     -.15       .0     -.15 -.259808       .0     .006
GW   520    5     -.15 -.259808       .0       .0      -.3       .0     .006
GW   521    5       .0      -.3       .0      .15 -.259808       .0     .006
GW   522    5      .15 -.259808       .0  .259808     -.15       .0     .006
GW   523    5  .259808     -.15       .0       .3       .0       .0     .006
GE 0
